M0001
  Spartan 08111310363D

  5  4  0  0  0  0  0  0  0  0999 V2000
    0.0370   -0.0253    0.1252 O   0  0  0  0  0  0  0  0  0  0  0  0
    0.3478   -0.8749    0.4940 H   0  0  0  0  0  0  0  0  0  0  0  0
    0.3368    0.0703   -0.7997 H   0  0  0  0  0  0  0  0  0  0  0  0
    0.3554    0.7056    0.6565 H   0  0  0  0  0  0  0  0  0  0  0  0
   -0.9181    0.0304    0.1740 H   0  0  0  0  0  0  0  0  0  0  0  0
  1  4  1  0  0  0  0
  1  5  1  0  0  0  0
  2  1  1  0  0  0  0
  3  1  1  0  0  0  0
M  END
$$$$
